Set 35: way: 00
Set 35: way: 11
Set 35: way: 22
Set 35: way: 33

*** ChampSim Multicore Out-of-Order Simulator ***

Warmup Instructions: 10000000
Simulation Instructions: 10000000
Number of CPUs: 1
LLC sets: 2048
LLC ways: 16
Off-chip DRAM Size: 4096 MB Channels: 1 Width: 64-bit Data Rate: 6400 MT/s
CPU 0 runs ipc1_public/client_001.champsimtrace.xz
.xz
ITLB has LRU replacement policy
DTLB has LRU replacement policy
STLB has LRU replacement policy
hashed_perceptron-shotgun-ipcp_isca-ipcp_isca-no-no-no-no-lru-lru-lru-srrip-drrip-lru-lru-lru-1core: prefetcher/l1i_prefetcher.cc:27: void O3_CPU::l1i_prefetcher_initialize(): Assertion `rw == sizeof(e)' failed.
